wecc240_new.m
% Case saved by PowerWorld Simulator, version 19, build date January 17, 2017
% Case Information Header = 2 lines
% SIMPLIFIED WECC240 MODEL: PRELIMINARY DRAFT, RESEARCH ONLY
% FOR PSERC PROJECT M21 - SEE PROJECT DOCUMENTS FOR DETAILS
function mpc = WECC240_M21_psse33_v02
mpc.version = '2';
mpc.baseMVA =  100.00;

%% bus data
mpc.bus = [
   1001 1      0.00     0.00      0.00     0.00   10 1.0298400     7.28400  500.00  10   1.100   0.900
   1002 1    226.84   -37.47      0.00     0.00   10 1.0140001    11.03510  345.00  10   1.100   0.900
   1003 1   2153.32   366.86      0.00     0.00   10 0.9731800     2.37460  230.00  10   1.100   0.900
   1004 1   1037.95     5.52      0.00     0.00   10 1.0664800    23.69550  345.00  10   1.100   0.900
   1032 2      0.00     0.00      0.00     0.00   10 1.0165900    11.61540   20.00  10   1.100   0.900
   1034 2      0.00     0.00      0.00     0.00   10 1.0730500    25.40710   20.00  10   1.100   0.900
   1101 1   4527.37  -137.04      0.00     0.00   10 1.0100000   -18.42060  500.00  10   1.100   0.900
   1102 1    176.44    23.00      0.00     0.00   10 0.9772700    -6.49730  345.00  10   1.100   0.900
   1131 2      0.00     0.00      0.00     0.00   10 1.0112600   -17.89320   20.00  10   1.100   0.900
   1201 1    166.99    -2.01      0.00     0.00   10 1.0843300    -8.99770  500.00  10   1.100   0.900
   1202 1    875.61   287.13      0.00     0.00   10 1.0800000    -6.01230  500.00  10   1.100   0.900
   1232 2      0.00     0.00      0.00     0.00   10 1.0807000    -5.18150   20.00  10   1.100   0.900
   1301 1   2704.78   352.83      0.00     0.00   10 1.0450000   -13.09990  500.00  10   1.100   0.900
   1302 1     17.56     2.30      0.00     0.00   10 1.0278300   -12.41600  500.00  10   1.100   0.900
   1303 1   6235.14   813.35      0.00     0.00   10 1.0050000   -14.56940  345.00  10   1.100   0.900
   1331 2      0.00     0.00      0.00     0.00   10 1.0455200   -12.01960   20.00  10   1.100   0.900
   1333 2      0.00     0.00      0.00     0.00   10 1.0080301   -13.11420   20.00  10   1.100   0.900
   1401 1   6535.54  1524.59      0.00     0.00   10 1.0350000   -19.46390  500.00  10   1.100   0.900
   1402 1   5366.63  -600.16      0.00     0.00   10 1.0563101   -24.31670  500.00  10   1.100   0.900
   1403 1      0.00     0.00      0.00     0.00   10 1.0356700   -19.38470  230.00  10   1.100   0.900
   1431 2      0.00     0.00      0.00     0.00   10 1.0403399   -17.10400   20.00  10   1.100   0.900
   2000 1   2207.19   287.92      0.00     0.00   20 1.0000000   -24.53750  230.00  20   1.100   0.900
   2030 2      0.00     0.00      0.00     0.00   20 1.0014300   -23.83430   20.00  20   1.100   0.900
   2100 1    281.15    54.83      0.00     0.00   21 1.0340500   -18.95990  230.00  21   1.100   0.900
   2130 2      0.00     0.00      0.00     0.00   21 1.0349100   -18.60430   20.00  21   1.100   0.900
   2201 1      0.00     0.00      0.00     0.00   22 0.9883100   -35.08720  500.00  22   1.100   0.900
   2202 1   1545.95   268.57      0.00     0.00   22 0.9857500   -36.45360  230.00  22   1.100   0.900
   2203 1   1708.55   278.27      0.00     0.00   22 1.0050000   -37.04170  230.00  22   1.100   0.900
   2233 2      0.00     0.00      0.00     0.00   22 1.0073200   -36.76040   20.00  22   1.100   0.900
   2301 1      0.00     0.00      0.00     0.00   22 1.0344800   -21.83240  500.00  23   1.100   0.900
   2302 1      0.00     0.00      0.00     0.00   22 1.0350000   -20.76590  230.00  23   1.100   0.900
   2332 2      0.00     0.00      0.00     0.00   22 1.0354299   -20.53120   20.00  23   1.100   0.900
   2400 1    843.29    76.66      0.00     0.00   24 1.0204999   -26.36890  500.00  24   1.100   0.900
   2401 1    882.36   105.21      0.00     0.00   24 1.0299900   -19.14420  500.00  24   1.100   0.900
   2402 1   1080.02    81.98      0.00     0.00   24 1.0131201   -24.53220  500.00  24   1.100   0.900
   2403 1   1050.00    38.54      0.00     0.00   24 1.0129000   -29.21200  500.00  24   1.100   0.900
   2404 1      0.00     0.00      0.00     0.00   24 1.0154300   -12.98380  500.00  24   1.100   0.900
   2405 1    824.68    22.90      0.00     0.00   24 1.0112400   -15.91770  230.00  24   1.100   0.900
   2406 1    737.40   -40.75      0.00     0.00   24 1.0018899   -16.89300  230.00  24   1.100   0.900
   2407 1   1732.77   -36.54      0.00     0.00   24 0.9683800   -19.00060  230.00  24   1.100   0.900
   2408 1   1743.28   -72.62      0.00     0.00   24 1.0089999    -5.95910  230.00  24   1.100   0.900
   2409 1   1601.78   -86.70      0.00     0.00   24 1.0067800   -26.48180  230.00  24   1.100   0.900
   2410 1   1576.79    58.18      0.00     0.00   24 1.0027400   -19.56150  230.00  24   1.100   0.900
   2411 1   1087.62    75.96      0.00     0.00   24 1.0088800   -15.33660  230.00  24   1.100   0.900
   2438 2      0.00     0.00      0.00     0.00   24 1.0128300    -3.90210   20.00  24   1.100   0.900
   2501 1      0.00     0.00      0.00     0.00   25 1.0088400   -26.68390  500.00  25   1.100   0.900
   2502 1   2369.15   -91.90      0.00     0.00   25 1.0051500   -28.02740  230.00  25   1.100   0.900
   2503 1   1845.93   201.99      0.00     0.00   25 1.0089999   -31.59070  230.00  25   1.100   0.900
   2533 2      0.00     0.00      0.00     0.00   25 1.0107700   -31.00750   20.00  25   1.100   0.900
   2600 1  -1863.90     0.00      0.00     0.00   90 1.0425201   -14.10200  500.00  90   1.100   0.900
   2601 1      0.00     0.00      0.00     0.00   26 1.0403000   -14.75520  500.00  26   1.100   0.900
   2602 1     99.28    12.95      0.00     0.00   26 1.0168900   -14.75220  500.00  26   1.100   0.900
   2603 1      0.00     0.00      0.00     0.00   26 1.0427001   -14.82160  500.00  26   1.100   0.900
   2604 1   2050.78     0.00      0.00     0.00   90 1.0599999     2.07610  345.00  90   1.100   0.900
   2605 1      0.00     0.00      0.00     0.00   26 1.0161700   -12.97550  287.00  26   1.100   0.900
   2606 1      0.00     0.00      0.00     0.00   26 1.0161700   -12.97550  287.00  26   1.100   0.900
   2607 1      0.00     0.00      0.00     0.00   26 1.0374200   -14.21200  287.00  26   1.100   0.900
   2608 1     99.28    12.95      0.00     0.00   26 1.0229500   -15.75720  230.00  26   1.100   0.900
   2609 1    134.03    26.81      0.00     0.00   26 0.9975300   -13.37010  230.00  26   1.100   0.900
   2610 1     99.28    12.95      0.00     0.00   26 1.0040000     0.62440  230.00  26   1.100   0.900
   2611 1     99.28    12.95      0.00     0.00   26 1.0208600   -14.98650  230.00  26   1.100   0.900
   2612 1    120.13    24.82      0.00     0.00   26 1.0150000   -15.18530  230.00  26   1.100   0.900
   2613 1    317.69    64.53      0.00     0.00   26 0.9925900   -10.04450  230.00  26   1.100   0.900
   2614 1    137.01    27.80      0.00     0.00   26 0.9990800   -11.65940  230.00  26   1.100   0.900
   2615 1    801.98   131.15      0.00     0.00   26 1.0032500   -14.66830  230.00  26   1.100   0.900
   2616 1    116.16    23.83      0.00     0.00   26 0.9943000   -10.38480  230.00  26   1.100   0.900
   2617 1    120.13    24.82      0.00     0.00   26 0.9956100   -11.99080  230.00  26   1.100   0.900
   2618 1    881.30    -6.16      0.00     0.00   26 1.0124600   -16.35060  230.00  26   1.100   0.900
   2619 1  -2773.83     0.00      0.00     0.00   90 1.0133700   -14.64180  230.00  90   1.100   0.900
   2620 1    203.72    17.47      0.00     0.00   26 1.0092900   -15.40340  230.00  26   1.100   0.900
   2621 1    235.49   -62.74      0.00     0.00   26 1.0090899   -12.75380  138.00  26   1.100   0.900
   2630 2      0.00     0.00      0.00     0.00   26 1.0049800     1.27230   20.00  26   1.100   0.900
   2631 2      0.00     0.00      0.00     0.00   26 1.0215000   -14.92270   20.00  26   1.100   0.900
   2634 2      0.00     0.00      0.00     0.00   90 1.0606500     2.50490   20.00  90   1.100   0.900
   2637 2      0.00     0.00      0.00     0.00   26 1.0154500   -15.15470   20.00  26   1.100   0.900
   2638 2      0.00     0.00      0.00     0.00   26 1.0233600   -15.75720   20.00  26   1.100   0.900
   2901 1      0.00     0.00      0.00     0.00   24 1.0919100   -13.89260  500.00  29   1.100   0.900
   2902 1      0.00     0.00      0.00     0.00   24 1.0997100   -15.55570  500.00  29   1.100   0.900
   3101 1    341.31    52.83      0.00     0.00   31 0.9852600   -11.06510  230.00  31   1.100   0.900
   3102 1    159.46    24.93      0.00     0.00   31 0.9905000    -9.80810  230.00  31   1.100   0.900
   3103 1    419.61    59.78      0.00     0.00   32 1.0000000    -7.64000  230.00  31   1.100   0.900
   3104 1    309.97    40.13      0.00     0.00   31 0.9866700   -16.08470  115.00  31   1.100   0.900
   3105 1    239.30    49.09      0.00     0.00   31 1.0000000   -16.96100  115.00  31   1.100   0.900
   3133 2      0.00     0.00      0.00     0.00   32 1.0011801    -7.63110   20.00  31   1.100   0.900
   3135 2      0.00     0.00      0.00     0.00   31 1.0004700   -16.90590   20.00  31   1.100   0.900
   3201 1    462.48    97.85      0.00     0.00   32 1.0070500    -4.16830  230.00  32   1.100   0.900
   3202 1    586.18    83.47      0.00     0.00   32 1.0050700    -4.83630  230.00  32   1.100   0.900
   3203 1    657.10   158.48      0.00     0.00   32 1.0016400    -5.35250  230.00  32   1.100   0.900
   3204 1    668.79    95.31      0.00     0.00   32 1.0100000    -3.56940  230.00  32   1.100   0.900
   3205 1    546.06    77.78      0.00     0.00   32 1.0019000    -5.04670  230.00  32   1.100   0.900
   3234 2      0.00     0.00      0.00     0.00   32 1.0118500    -2.90510   20.00  32   1.100   0.900
   3301 1      0.00     0.00      0.00     0.00   32 0.9928300    -6.01180  500.00  33   1.100   0.900
   3302 1    345.33    85.79      0.00     0.00   32 0.9850500   -10.05720  230.00  33   1.100   0.900
   3303 1    625.41   150.71      0.00     0.00   32 1.0000000    -6.88600  230.00  33   1.100   0.900
   3304 1    533.48   122.62      0.00     0.00   32 0.9895300    -8.91830  230.00  33   1.100   0.900
   3305 1    430.32    61.22      0.00     0.00   32 0.9978100    -7.05050  230.00  33   1.100   0.900
   3333 2      0.00     0.00      0.00     0.00   32 1.0026600    -6.65420   20.00  33   1.100   0.900
   3401 1    557.71   135.91      0.00     0.00   34 0.9703000   -15.83040  230.00  34   1.100   0.900
   3402 1      0.00     0.00      0.00     0.00   34 1.0000000   -16.02000  230.00  34   1.100   0.900
   3403 1    515.97    73.58      0.00     0.00   34 1.0000000    -4.46760  230.00  34   1.100   0.900
   3404 1    438.46    62.08      0.00     0.00   34 0.9752300    -9.22160  230.00  34   1.100   0.900
   3405 1    448.90    63.72      0.00     0.00   34 0.9589800   -17.86030  230.00  34   1.100   0.900
   3432 2      0.00     0.00      0.00     0.00   34 1.0009500   -16.02000   20.00  34   1.100   0.900
   3433 2      0.00     0.00      0.00     0.00   34 1.0007200    -4.16700   20.00  34   1.100   0.900
   3501 1    625.02    89.02      0.00     0.00   35 1.0000000    -0.33720  230.00  35   1.100   0.900
   3531 2      0.00     0.00      0.00     0.00   35 1.0003500    -0.02530   20.00  35   1.100   0.900
   3601 1    104.86    14.84      0.00     0.00   36 1.0150000     3.43490  115.00  36   1.100   0.900
   3631 2      0.00     0.00      0.00     0.00   36 1.0148300     3.46200   20.00  36   1.100   0.900
   3701 1    317.05    15.85      0.00     0.00   37 1.0040000   -15.54240  115.00  37   1.100   0.900
   3731 2      0.00     0.00      0.00     0.00   37 1.0049900   -15.47940   20.00  37   1.100   0.900
   3801 1    191.22    47.41      0.00     0.00   38 1.0490000    -0.47890  500.00  38   1.100   0.900
   3802 1      0.00     0.00      0.00     0.00   38 1.0067600    -5.66200  500.00  38   1.100   0.900
   3803 1      0.00     0.00      0.00     0.00   38 1.0203800    -8.33060  500.00  38   1.100   0.900
   3804 1    223.64    55.32      0.00     0.00   38 0.9898200    -8.56310  230.00  38   1.100   0.900
   3805 1    499.39   163.11      0.00     0.00   38 1.0350000    -8.47380  230.00  38   1.100   0.900
   3806 1    289.59    41.37      0.00     0.00   38 1.0190001    -5.40810  230.00  38   1.100   0.900
   3831 2      0.00     0.00      0.00     0.00   38 1.0508100     0.06900   20.00  38   1.100   0.900
   3835 2      0.00     0.00      0.00     0.00   38 1.0371900    -8.39930   20.00  38   1.100   0.900
   3836 2      0.00     0.00      0.00     0.00   38 1.0192000    -5.22080   20.00  38   1.100   0.900
   3891 1      0.00     0.00      0.00     0.00   38 1.0416400   -12.38570  500.00  38   1.100   0.900
   3892 1      0.00     0.00      0.00     0.00   38 1.0105200    -3.04670  500.00  38   1.100   0.900
   3893 1      0.00     0.00      0.00     0.00   38 1.0225600   -18.16640  500.00  38   1.100   0.900
   3894 1      0.00     0.00      0.00     0.00   38 1.0102800    -2.95820  500.00  38   1.100   0.900
   3895 1      0.00     0.00      0.00     0.00   38 1.0228900   -18.19940  500.00  38   1.100   0.900
   3896 1      0.00     0.00      0.00     0.00   38 1.0108900    -2.69060  500.00  38   1.100   0.900
   3897 1      0.00     0.00      0.00     0.00   38 1.0238600   -17.94930  500.00  38   1.100   0.900
   3901 1      0.00     0.00      0.00     0.00   39 0.9376100     1.18420  500.00  39   1.100   0.900
   3902 1    152.99    38.25      0.00     0.00   39 1.0000000     0.15170  500.00  39   1.100   0.900
   3903 1    213.25    30.27      0.00     0.00   39 1.0014700    -3.56560  500.00  39   1.100   0.900
   3904 1      0.00     0.00      0.00     0.00   39 1.0814199     8.14280  500.00  39   1.100   0.900
   3905 1      0.00     0.00      0.00     0.00   39 1.0350900     5.71410  500.00  39   1.100   0.900
   3906 1      0.00     0.00      0.00     0.00   39 1.0642700     9.77470  500.00  39   1.100   0.900
   3907 1    461.36    63.07      0.00     0.00   39 0.9615000   -15.91750  230.00  39   1.100   0.900
   3908 1    200.28    24.72      0.00     0.00   39 0.9637900   -16.41820  230.00  39   1.100   0.900
   3909 1    170.96    39.79      0.00     0.00   39 0.9683900   -13.58930  230.00  39   1.100   0.900
   3910 1    241.84    34.44      0.00     0.00   39 0.9788600    -8.56680  230.00  39   1.100   0.900
   3911 1    233.13    47.11      0.00     0.00   39 1.0365200     3.58840  230.00  39   1.100   0.900
   3912 1    174.50    -0.63      0.00     0.00   39 1.0203800    -4.31470  230.00  39   1.100   0.900
   3913 1    329.55    43.44      0.00     0.00   39 0.9780000   -12.39810  230.00  39   1.100   0.900
   3914 1    227.75    52.55      0.00     0.00   39 0.9905100    -4.56140  230.00  39   1.100   0.900
   3915 1    254.46    53.40      0.00     0.00   39 1.0012400    -3.83720  230.00  39   1.100   0.900
   3916 1    155.00     0.00      0.00     0.00   39 1.0199500    -4.45090  230.00  39   1.100   0.900
   3917 1    238.19    43.99      0.00     0.00   39 0.9456200    -4.39990  230.00  39   1.100   0.900
   3918 1    319.28    75.46      0.00     0.00   39 0.9902400    -5.99630  230.00  39   1.100   0.900
   3919 1    184.51    24.09      0.00     0.00   39 0.9739300   -10.81620  230.00  39   1.100   0.900
   3920 1    172.50    23.68      0.00     0.00   39 0.9771000   -13.41280  230.00  39   1.100   0.900
   3921 1    150.89    34.82      0.00     0.00   39 1.0700000    12.83810  230.00  39   1.100   0.900
   3922 1    253.45    31.92      0.00     0.00   39 0.9945200    -4.97480  230.00  39   1.100   0.900
   3923 1    399.06    67.02      0.00     0.00   39 1.0120000    -1.22860  230.00  39   1.100   0.900
   3924 1    332.49    47.17      0.00     0.00   39 1.0211400    -2.01370  230.00  39   1.100   0.900
   3925 1      0.00     0.00      0.00     0.00   39 1.0268000     3.48340  115.00  39   1.100   0.900
   3926 1    267.35    16.67      0.00     0.00   39 0.9895900   -15.62570  115.00  39   1.100   0.900
   3931 2      0.00     0.00      0.00     0.00   39 1.0707500    13.16920   20.00  39   1.100   0.900
   3932 2      0.00     0.00      0.00     0.00   39 1.0033701     0.57370   20.00  39   1.100   0.900
   3933 3      0.00     0.00      0.00     0.00   39 1.0120000     0.00000   20.00  39   1.100   0.900
   4001 1      0.00     0.00      0.00     0.00   40 1.0800000    11.99390  500.00  40   1.100   0.900
   4002 1    168.68    22.00      0.00     0.00   40 1.1417500    15.80310  500.00  40   1.100   0.900
   4003 1      0.00     0.00      0.00     0.00   40 1.2087200    16.79370  500.00  40   1.100   0.900
   4004 1    270.45    35.30      0.00     0.00   40 1.1161500    20.51780  500.00  40   1.100   0.900
   4005 1    480.11   157.42      0.00     0.00   40 1.1210000    29.82110  500.00  40   1.100   0.900
   4006 1      0.00     0.00      0.00     0.00   40 1.1101000    27.29060  500.00  40   1.100   0.900
   4007 1      0.00     0.00      0.00     0.00   40 1.1099300    27.17030  500.00  40   1.100   0.900
   4008 1    285.14    37.20      0.00     0.00   40 1.0682900     8.99710  345.00  40   1.100   0.900
   4009 1   2208.74   431.40      0.00     0.00   40 1.1094800    25.79700  230.00  40   1.100   0.900
   4010 1   3133.61     0.00      0.00     0.00   90 1.1091501    25.39380  230.00  90   1.100   0.900
   4031 2      0.00     0.00      0.00     0.00   40 1.0810200    12.47350   20.00  40   1.100   0.900
   4035 2      0.00     0.00      0.00     0.00   40 1.1260001    30.76700   20.00  40   1.100   0.900
   4039 2      0.00     0.00      0.00     0.00   40 1.1125799    26.42860   20.00  40   1.100   0.900
   4090 1      0.00     0.00      0.00     0.00   40 1.1341200    15.26470  500.00  40   1.100   0.900
   4091 1      0.00     0.00      0.00     0.00   40 1.1301500    18.52080  500.00  40   1.100   0.900
   4092 1      0.00     0.00      0.00     0.00   40 1.0995899    14.10030  500.00  40   1.100   0.900
   4093 1      0.00     0.00      0.00     0.00   40 1.0984401    13.25110  500.00  40   1.100   0.900
   4094 1      0.00     0.00      0.00     0.00   40 1.1133200    19.68470  500.00  40   1.100   0.900
   4095 1      0.00     0.00      0.00     0.00   40 1.0980999    13.72950  500.00  40   1.100   0.900
   4096 1      0.00     0.00      0.00     0.00   40 1.0969300    12.83020  500.00  40   1.100   0.900
   4097 1      0.00     0.00      0.00     0.00   40 1.1127000    19.63970  500.00  40   1.100   0.900
   4101 1    995.03   129.78      0.00     0.00   40 1.1280000    53.68160  500.00  41   1.100   0.900
   4102 1    480.65    68.66      0.00     0.00   40 1.0960000    41.86620  500.00  41   1.100   0.900
   4103 1     11.63     1.51      0.00     0.00   40 1.0905600    37.73210  500.00  41   1.100   0.900
   4104 1   2527.77   329.74      0.00     0.00   40 1.0615300    27.88600  230.00  41   1.100   0.900
   4131 2      0.00     0.00      0.00     0.00   40 1.1318400    55.95530   20.00  41   1.100   0.900
   4132 2      0.00     0.00      0.00     0.00   40 1.0941300    43.48370   20.00  41   1.100   0.900
   4201 1   5762.66   461.01      0.00     0.00   40 1.1200000    45.32900  500.00  42   1.100   0.900
   4202 1   4558.24   594.63      0.00     0.00   40 1.0800000    27.20430  500.00  42   1.100   0.900
   4203 1   4379.63   571.33      0.00     0.00   40 1.0356300    22.33830  500.00  42   1.100   0.900
   4204 1   1014.52   132.34      0.00     0.00   40 1.0714900    12.69490  500.00  42   1.100   0.900
   4231 2      0.00     0.00      0.00     0.00   40 1.1264800    46.37440   20.00  42   1.100   0.900
   4232 2      0.00     0.00      0.00     0.00   40 1.0837600    27.45790   20.00  42   1.100   0.900
   5001 1   7574.05  1721.38      0.00     0.00   50 1.0499999    46.53680  500.00  50   1.100   0.900
   5002 1   9003.98  1174.36      0.00     0.00   50 1.0550000    50.67430  500.00  50   1.100   0.900
   5003 1    615.22    80.25      0.00     0.00   50 1.0482000    43.54920  230.00  50   1.100   0.900
   5004 1      0.00     0.00      0.00     0.00   50 1.0534600    35.62160  230.00  50   1.100   0.900
   5031 2      0.00     0.00      0.00     0.00   50 1.0552700    48.48990   20.00  50   1.100   0.900
   5032 2      0.00     0.00      0.00     0.00   50 1.0612900    53.35930   20.00  50   1.100   0.900
   6101 1      0.00     0.00      0.00     0.00   61 1.1645800    18.31090  500.00  61   1.100   0.900
   6102 1   1053.14  -345.28      0.00     0.00   61 1.1300000    18.68350  345.00  61   1.100   0.900
   6103 1    391.89    51.11      0.00     0.00   61 1.0991100    15.90570  345.00  61   1.100   0.900
   6104 1   1694.96   221.09      0.00     0.00   61 1.0318900     8.52470  230.00  61   1.100   0.900
   6132 2      0.00     0.00      0.00     0.00   61 1.1286000    19.16570   20.00  61   1.100   0.900
   6201 1    205.82    26.86      0.00     0.00   60 1.1200000    37.46760  500.00  62   1.100   0.900
...
];

%% generator data
mpc.gen = [
   1032   1825.00    398.34   1030.00  -1030.00  1.0166    100.00 1   2060.00      0.00      0.00      0.00      0.00      0.00      0.00      0.00 0 0 0 0 2060.0000
   1032    262.80    138.07    357.00   -357.00  1.0166    100.00 1    714.00      0.00      0.00      0.00      0.00      0.00      0.00      0.00 0 0 0 0 714.0000
   1034   4064.00    887.19   2294.00  -2294.00  1.0731    100.00 1   4587.00      0.00      0.00      0.00      0.00      0.00      0.00      0.00 0 0 0 0 4587.0000
   1034   1402.00    355.03    918.00   -918.00  1.0731    100.00 1   1835.00      0.00      0.00      0.00      0.00      0.00      0.00      0.00 0 0 0 0 1835.0000
   1034   1370.00    270.72    700.00   -700.00  1.0731    100.00 1   1400.00      0.00      0.00      0.00      0.00      0.00      0.00      0.00 0 0 0 0 1400.0000
   1131    545.00     34.69    308.00   -308.00  1.0113    100.00 1    615.00      0.00      0.00      0.00      0.00      0.00      0.00      0.00 0 0 0 0 615.0000
   1131   1287.15    215.79   1916.00  -1916.00  1.0113    100.00 1   3830.80      0.00      0.00      0.00      0.00      0.00      0.00      0.00 0 0 0 0 3830.8000
   1131     48.00     13.52    120.00   -120.00  1.0113    100.00 1    240.00      0.00      0.00      0.00      0.00      0.00      0.00      0.00 0 0 0 0 240.0000
   1232   2140.00    115.89   1208.00  -1208.00  1.0807    100.00 1   2415.00      0.00      0.00      0.00      0.00      0.00      0.00      0.00 0 0 0 0 2415.0000
   1232   1244.40     60.25    628.00   -628.00  1.0807    100.00 1   1256.00      0.00      0.00      0.00      0.00      0.00      0.00      0.00 0 0 0 0 1256.0000
   1331   1682.00     60.55    841.00   -841.00  1.0455    100.00 1   1682.00      0.00      0.00      0.00      0.00      0.00      0.00      0.00 0 0 0 0 1682.0000
   1331   2438.00     87.76   1219.00  -1219.00  1.0455    100.00 1   2438.00      0.00      0.00      0.00      0.00      0.00      0.00      0.00 0 0 0 0 2438.0000
   1333    536.00     66.45    303.00   -303.00  1.0080    100.00 1    605.00      0.00      0.00      0.00      0.00      0.00      0.00      0.00 0 0 0 0 605.0000
   1333   4534.44    602.24   2746.00  -2746.00  1.0080    100.00 1   5491.00      0.00      0.00      0.00      0.00      0.00      0.00      0.00 0 0 0 0 5491.0000
   1333     75.00      8.33     38.00    -38.00  1.0080    100.00 1     75.00      0.00      0.00      0.00      0.00      0.00      0.00      0.00 0 0 0 0  75.0000
   1431   5012.16    817.62   3559.00  -3559.00  1.0403    100.00 1   7118.70      0.00      0.00      0.00      0.00      0.00      0.00      0.00 0 0 0 0 7118.7002
   1431   3825.00    472.56   2057.00  -2057.00  1.0403    100.00 1   4113.00      0.00      0.00      0.00      0.00      0.00      0.00      0.00 0 0 0 0 4113.0000
   1431     30.00      3.45     15.00    -15.00  1.0403    100.00 1     30.00      0.00      0.00      0.00      0.00      0.00      0.00      0.00 0 0 0 0  30.0000
   2030    629.00     74.41    350.00   -350.00  1.0014    100.00 1    699.00      0.00      0.00      0.00      0.00      0.00      0.00      0.00 0 0 0 0 699.0000
   2030   1829.04    227.48   1070.00  -1070.00  1.0014    100.00 1   2140.00      0.00      0.00      0.00      0.00      0.00      0.00      0.00 0 0 0 0 2140.0000
   2130    507.00     58.35    254.00   -254.00  1.0349    100.00 1    507.00      0.00      0.00      0.00      0.00      0.00      0.00      0.00 0 0 0 0 507.0000
   2130    171.40     45.95    200.00   -200.00  1.0349    100.00 1    400.00      0.00      0.00      0.00      0.00      0.00      0.00      0.00 0 0 0 0 400.0000
   2130    477.80     57.43    250.00   -250.00  1.0349    100.00 1    500.00      0.00      0.00      0.00      0.00      0.00      0.00      0.00 0 0 0 0 500.0000
   2130    172.00     19.76     86.00    -86.00  1.0349    100.00 1    172.00      0.00      0.00      0.00      0.00      0.00      0.00      0.00 0 0 0 0 172.0000
   2233    418.71    127.19    304.00   -118.00  1.0073    100.00 1    706.00      0.00      0.00      0.00      0.00      0.00      0.00      0.00 0 0 0 0 706.0000
   2233    344.13    255.64    611.00   -181.00  1.0073    100.00 1   1253.00      0.00      0.00      0.00      0.00      0.00      0.00      0.00 0 0 0 0 1253.0000
   2233    231.00     86.19    206.00   -155.00  1.0073    100.00 1    500.00      0.00      0.00      0.00      0.00      0.00      0.00      0.00 0 0 0 0 500.0000
   2332    878.00     91.48    590.00   -364.00  1.0354    100.00 1   1118.00      0.00      0.00      0.00      0.00      0.00      0.00      0.00 0 0 0 0 1118.0000
   2438   1043.27     77.83    728.00   -454.00  1.0128    100.00 1   1563.00      0.00      0.00      0.00      0.00      0.00      0.00      0.00 0 0 0 0 1563.0000
   2438      0.00      0.00      0.50      0.00  1.0128    100.00 1      0.00  -1006.00      0.00      0.00      0.00      0.00      0.00      0.00 0 0 0 0   0.0000
   2438   1816.96    203.33   1902.00  -1168.00  1.0128    100.00 1   3718.00      0.00      0.00      0.00      0.00      0.00      0.00      0.00 0 0 0 0 3718.0000
   2438    761.99    245.98   2301.00  -1053.00  1.0128    100.00 1   2803.00      0.00      0.00      0.00      0.00      0.00      0.00      0.00 0 0 0 0 2803.0000
   2438    670.00     70.45    659.00   -523.00  1.0128    100.00 1   1340.00      0.00      0.00      0.00      0.00      0.00      0.00      0.00 0 0 0 0 1340.0000
   2438    473.00     46.61    436.00   -197.00  1.0128    100.00 1    946.00      0.00      0.00      0.00      0.00      0.00      0.00      0.00 0 0 0 0 946.0000
   2438    255.00     59.97    561.00   -553.00  1.0128    100.00 1   1273.00      0.00      0.00      0.00      0.00      0.00      0.00      0.00 0 0 0 0 1273.0000
   2438   2316.20    204.18   1910.00  -1150.00  1.0128    100.00 1   3967.00      0.00      0.00      0.00      0.00      0.00      0.00      0.00 0 0 0 0 3967.0000
   2533   2076.00    367.95   1100.00   -820.00  1.0108    100.00 1   2232.00      0.00      0.00      0.00      0.00      0.00      0.00      0.00 0 0 0 0 2232.0000
   2630   2281.80    209.93   1346.00  -1346.00  1.0050    100.00 1   2692.00      0.00      0.00      0.00      0.00      0.00      0.00      0.00 0 0 0 0 2692.0000
   2631    232.31    131.92    159.00   -159.00  1.0215    100.00 1    318.00      0.00      0.00      0.00      0.00      0.00      0.00      0.00 0 0 0 0 318.0000
   2634   1683.00    145.08    950.00   -950.00  1.0606    100.00 1   1900.00      0.00      0.00      0.00      0.00      0.00      0.00      0.00 0 0 0 0 1900.0000
   2637    110.00     91.26    110.00   -110.00  1.0154    100.00 1    110.00      0.00      0.00      0.00      0.00      0.00      0.00      0.00 0 0 0 0 110.0000
   2638      0.00     82.97    100.00   -100.00  1.0234    100.00 1   1272.00  -1272.00      0.00      0.00      0.00      0.00      0.00      0.00 0 0 0 0 1272.0000
   3133     30.80     18.29     42.00    -29.00  1.0012    100.00 1     42.00      0.00      0.00      0.00      0.00      0.00      0.00      0.00 0 0 0 0  42.0000
   3133      0.00    217.73    500.00   -500.00  1.0012    100.00 1      0.10      0.00      0.00      0.00      0.00      0.00      0.00      0.00 0 0 0 0   0.1000
   3135    173.00     65.81    239.00   -201.00  1.0005    100.00 1    369.00      0.00      0.00      0.00      0.00      0.00      0.00      0.00 0 0 0 0 369.0000
   3135     19.60     27.54    100.00    -85.00  1.0005    100.00 1     26.00      0.00      0.00      0.00      0.00      0.00      0.00      0.00 0 0 0 0  26.0000
   3234     73.60     21.79    101.00    -75.00  1.0118    100.00 1    121.00      0.00      0.00      0.00      0.00      0.00      0.00      0.00 0 0 0 0 121.0000
   3234   1864.00    268.34   1244.00  -1234.00  1.0118    100.00 1   2628.00      0.00      0.00      0.00      0.00      0.00      0.00      0.00 0 0 0 0 2628.0000
   3234    294.40     82.40    382.00   -212.00  1.0118    100.00 1    707.00      0.00      0.00      0.00      0.00      0.00      0.00      0.00 0 0 0 0 707.0000
   3234    138.00     16.18     75.00    -55.00  1.0118    100.00 1    690.00      0.00      0.00      0.00      0.00      0.00      0.00      0.00 0 0 0 0 690.0000
   3333    674.80    354.54    398.00   -226.00  1.0027    100.00 1    690.00      0.00      0.00      0.00      0.00      0.00      0.00      0.00 0 0 0 0 690.0000
   3333    136.40    179.94    202.00   -143.00  1.0027    100.00 1    213.00      0.00      0.00      0.00      0.00      0.00      0.00      0.00 0 0 0 0 213.0000
   3432      0.00    190.76    510.00   -306.00  1.0009    100.00 1   1218.00   -924.00      0.00      0.00      0.00      0.00      0.00      0.00 0 0 0 0 1218.0000
   3433     42.04     29.16    231.00   -175.00  1.0007    100.00 1    628.00      0.00      0.00      0.00      0.00      0.00      0.00      0.00 0 0 0 0 628.0000
   3433   1008.00    118.53    939.00   -562.00  1.0007    100.00 1   2016.00      0.00      0.00      0.00      0.00      0.00      0.00      0.00 0 0 0 0 2016.0000
   3531    781.00     58.43   1004.00   -599.00  1.0004    100.00 1    868.00      0.00      0.00      0.00      0.00      0.00      0.00      0.00 0 0 0 0 868.0000
   3531    293.00     14.72    253.00   -181.00  1.0004    100.00 1    325.00      0.00      0.00      0.00      0.00      0.00      0.00      0.00 0 0 0 0 325.0000
   3531     15.00      0.76     13.00    -10.00  1.0004    100.00 1     30.00      0.00      0.00      0.00      0.00      0.00      0.00      0.00 0 0 0 0  30.0000
   3631     45.00     -9.82     20.00    -14.00  1.0148    100.00 1     53.00      0.00      0.00      0.00      0.00      0.00      0.00      0.00 0 0 0 0  53.0000
   3631     52.40    -23.84     74.00    -34.00  1.0148    100.00 1    143.00      0.00      0.00      0.00      0.00      0.00      0.00      0.00 0 0 0 0 143.0000
   3731    222.00    200.03    200.00   -121.00  1.0050    100.00 1    255.00      0.00      0.00      0.00      0.00      0.00      0.00      0.00 0 0 0 0 255.0000
   3831   2108.00    390.23   1175.00   -980.00  1.0508    100.00 1   2267.00      0.00      0.00      0.00      0.00      0.00      0.00      0.00 0 0 0 0 2267.0000
   3835      0.00      0.00      0.50      0.00  1.0372    100.00 1      0.00   -510.00      0.00      0.00      0.00      0.00      0.00      0.00 0 0 0 0   0.0000
   3835    279.20    453.76    662.00   -479.00  1.0372    100.00 1   1381.00      0.00      0.00      0.00      0.00      0.00      0.00      0.00 0 0 0 0 1381.0000
   3836    679.00     42.71    476.00   -352.00  1.0192    100.00 1   1021.00      0.00      0.00      0.00      0.00      0.00      0.00      0.00 0 0 0 0 1021.0000
   3931    267.00     17.39    151.00   -115.00  1.0708    100.00 1    314.00      0.00      0.00      0.00      0.00      0.00      0.00      0.00 0 0 0 0 314.0000
   3931   1057.00    147.90   1284.00   -946.00  1.0708    100.00 1   3696.00      0.00      0.00      0.00      0.00      0.00      0.00      0.00 0 0 0 0 3696.0000
   3932   1478.00    682.25   1150.00   -500.00  1.0034    100.00 1   1478.00      0.00      0.00      0.00      0.00      0.00      0.00      0.00 0 0 0 0 1478.0000
   3933    555.20     54.04    363.00    -82.00  1.0120    100.00 1    590.00      0.00      0.00      0.00      0.00      0.00      0.00      0.00 0 0 0 0 590.0000
   3933    162.00     11.46     77.00    -55.00  1.0120    100.00 1    191.00      0.00      0.00      0.00      0.00      0.00      0.00      0.00 0 0 0 0 191.0000
   3933      0.00      0.00      0.50      0.00  1.0120    100.00 1      0.00   -449.00      0.00      0.00      0.00      0.00      0.00      0.00 0 0 0 0   0.0000
   3933    154.80     74.44    500.00   -307.00  1.0120    100.00 1   1314.00      0.00      0.00      0.00      0.00      0.00      0.00      0.00 0 0 0 0 1314.0000
   3933   3467.00    186.98   1256.00  -1041.00  1.0120    100.00 1   3505.00      0.00      0.00      0.00      0.00      0.00      0.00      0.00 0 0 0 0 3505.0000
   3933     59.00      1.94     13.00    -11.00  1.0120    100.00 1    293.00      0.00      0.00      0.00      0.00      0.00      0.00      0.00 0 0 0 0 293.0000
   4031    953.20     99.59    502.00   -502.00  1.0810    100.00 1   1003.00      0.00      0.00      0.00      0.00      0.00      0.00      0.00 0 0 0 0 1003.0000
   4031    878.42     97.01    489.00   -489.00  1.0810    100.00 1    978.00      0.00      0.00      0.00      0.00      0.00      0.00      0.00 0 0 0 0 978.0000
   4031     75.00      7.54     38.00    -38.00  1.0810    100.00 1     75.00      0.00      0.00      0.00      0.00      0.00      0.00      0.00 0 0 0 0  75.0000
   4031     48.00     23.81    120.00   -120.00  1.0810    100.00 1    240.00      0.00      0.00      0.00      0.00      0.00      0.00      0.00 0 0 0 0 240.0000
   4035    452.00    102.51    255.00   -255.00  1.1260    100.00 1    510.00      0.00      0.00      0.00      0.00      0.00      0.00      0.00 0 0 0 0 510.0000
   4035    445.34    123.42    307.00   -307.00  1.1260    100.00 1    613.00      0.00      0.00      0.00      0.00      0.00      0.00      0.00 0 0 0 0 613.0000
   4035   3075.20    738.11   1836.00  -1836.00  1.1260    100.00 1   3671.00      0.00      0.00      0.00      0.00      0.00      0.00      0.00 0 0 0 0 3671.0000
   4035    195.00    196.19    488.00   -488.00  1.1260    100.00 1    976.00      0.00      0.00      0.00      0.00      0.00      0.00      0.00 0 0 0 0 976.0000
   4039    185.20     41.01    102.00   -102.00  1.1126    100.00 1    204.00      0.00      0.00      0.00      0.00      0.00      0.00      0.00 0 0 0 0 204.0000
   4039   2461.43    586.55   1459.00  -1459.00  1.1126    100.00 1   2918.00      0.00      0.00      0.00      0.00      0.00      0.00      0.00 0 0 0 0 2918.0000
   4039     75.00     75.58    188.00   -188.00  1.1126    100.00 1    375.00      0.00      0.00      0.00      0.00      0.00      0.00      0.00 0 0 0 0 375.0000
   4131  10082.00   1050.64   6482.00  -6482.00  1.1318    100.00 1  12963.00      0.00      0.00      0.00      0.00      0.00      0.00      0.00 0 0 0 0 12963.0000
   4131     48.00     19.45    120.00   -120.00  1.1318    100.00 1    240.00      0.00      0.00      0.00      0.00      0.00      0.00      0.00 0 0 0 0 240.0000
   4132    575.80    -88.30   1473.00  -1473.00  1.0941    100.00 1   2945.00      0.00      0.00      0.00      0.00      0.00      0.00      0.00 0 0 0 0 2945.0000
   4132   4619.00   -170.66   2847.00  -2847.00  1.0941    100.00 1   5693.00      0.00      0.00      0.00      0.00      0.00      0.00      0.00 0 0 0 0 5693.0000
   4132   1079.00    -34.77    580.00   -580.00  1.0941    100.00 1   1160.00      0.00      0.00      0.00      0.00      0.00      0.00      0.00 0 0 0 0 1160.0000
   4132    461.00    -13.85    231.00   -231.00  1.0941    100.00 1    461.00      0.00      0.00      0.00      0.00      0.00      0.00      0.00 0 0 0 0 461.0000
   4132     35.00     -5.27     88.00    -88.00  1.0941    100.00 1    175.00      0.00      0.00      0.00      0.00      0.00      0.00      0.00 0 0 0 0 175.0000
   4231   1290.00    339.68    728.00   -728.00  1.1265    100.00 1   1456.00      0.00      0.00      0.00      0.00      0.00      0.00      0.00 0 0 0 0 1456.0000
   4231    364.60    307.49    659.00   -659.00  1.1265    100.00 1   1317.00      0.00      0.00      0.00      0.00      0.00      0.00      0.00 0 0 0 0 1317.0000
   4231   2901.80    843.61   1808.00  -1808.00  1.1265    100.00 1   3615.00      0.00      0.00      0.00      0.00      0.00      0.00      0.00 0 0 0 0 3615.0000
   4231     47.00     11.20     24.00    -24.00  1.1265    100.00 1     47.00      0.00      0.00      0.00      0.00      0.00      0.00      0.00 0 0 0 0  47.0000
   4232    496.80    489.95    592.00   -592.00  1.0838    100.00 1   1184.00      0.00      0.00      0.00      0.00      0.00      0.00      0.00 0 0 0 0 1184.0000
   4232    496.20    237.53    287.00   -287.00  1.0838    100.00 1    573.00      0.00      0.00      0.00      0.00      0.00      0.00      0.00 0 0 0 0 573.0000
   4232     43.00     89.38    108.00   -108.00  1.0838    100.00 1    215.00      0.00      0.00      0.00      0.00      0.00      0.00      0.00 0 0 0 0 215.0000
   5031    478.06    150.07    605.00   -605.00  1.0553    100.00 1   1210.00      0.00      0.00      0.00      0.00      0.00      0.00      0.00 0 0 0 0 1210.0000
   5031   7074.88   1091.20   4399.00  -4399.00  1.0553    100.00 1   8798.80      0.00      0.00      0.00      0.00      0.00      0.00      0.00 0 0 0 0 8798.7998
   5032   5275.00    610.58   2977.00  -2977.00  1.0613    100.00 1   5954.00      0.00      0.00      0.00      0.00      0.00      0.00      0.00 0 0 0 0 5954.0000
   5032   1422.32    451.22   2200.00  -2200.00  1.0613    100.00 1   4400.00      0.00      0.00      0.00      0.00      0.00      0.00      0.00 0 0 0 0 4400.0000
   5032   3576.80    452.24   2205.00  -2205.00  1.0613    100.00 1   4410.20      0.00      0.00      0.00      0.00      0.00      0.00      0.00 0 0 0 0 4410.2002
   5032    108.00     11.08     54.00    -54.00  1.0613    100.00 1    108.00      0.00      0.00      0.00      0.00      0.00      0.00      0.00 0 0 0 0 108.0000
   5032    108.00     55.58    271.00   -271.00  1.0613    100.00 1    541.00      0.00      0.00      0.00      0.00      0.00      0.00      0.00 0 0 0 0 541.0000
   6132     13.00     -1.80      8.00     -8.00  1.1286    100.00 1     15.00      0.00      0.00      0.00      0.00      0.00      0.00      0.00 0 0 0 0  15.0000
   6132    203.60    -33.04    147.00   -147.00  1.1286    100.00 1    293.00      0.00      0.00      0.00      0.00      0.00      0.00      0.00 0 0 0 0 293.0000
   6132   1849.00   -240.98   1072.00  -1072.00  1.1286    100.00 1   2144.00      0.00      0.00      0.00      0.00      0.00      0.00      0.00 0 0 0 0 2144.0000
   6132     35.00     -4.05     18.00    -18.00  1.1286    100.00 1     35.00      0.00      0.00      0.00      0.00      0.00      0.00      0.00 0 0 0 0  35.0000
   6132     46.00    -26.53    118.00   -118.00  1.1286    100.00 1    236.00      0.00      0.00      0.00      0.00      0.00      0.00      0.00 0 0 0 0 236.0000
   6231   2225.00   -253.67   1256.00  -1256.00  1.1188    100.00 1   2511.00      0.00      0.00      0.00      0.00      0.00      0.00      0.00 0 0 0 0 2511.0000
   6231     43.40    -14.14     70.00    -70.00  1.1188    100.00 1    140.00      0.00      0.00      0.00      0.00      0.00      0.00      0.00 0 0 0 0 140.0000
   6235     82.00    -25.87     64.00    -64.00  1.2168    100.00 1    127.00      0.00      0.00      0.00      0.00      0.00      0.00      0.00 0 0 0 0 127.0000
   6235    580.60   -140.28    347.00   -347.00  1.2168    100.00 1    693.00      0.00      0.00      0.00      0.00      0.00      0.00      0.00 0 0 0 0 693.0000
   6235     38.00    -38.40     95.00    -95.00  1.2168    100.00 1    190.00      0.00      0.00      0.00      0.00      0.00      0.00      0.00 0 0 0 0 190.0000
   6333   2961.00    859.40   1671.00  -1671.00  1.1340    100.00 1   3342.00      0.00      0.00      0.00      0.00      0.00      0.00      0.00 0 0 0 0 3342.0000
   6333     50.00     63.77    124.00   -124.00  1.1340    100.00 1    248.00      0.00      0.00      0.00      0.00      0.00      0.00      0.00 0 0 0 0 248.0000
   6335   1714.00    209.96    968.00   -968.00  1.0617    100.00 1   1935.00      0.00      0.00      0.00      0.00      0.00      0.00      0.00 0 0 0 0 1935.0000
   6335    293.32     71.58    330.00   -330.00  1.0617    100.00 1    659.00      0.00      0.00      0.00      0.00      0.00      0.00      0.00 0 0 0 0 659.0000
   6335    417.20     88.06    406.00   -406.00  1.0617    100.00 1    812.00      0.00      0.00      0.00      0.00      0.00      0.00      0.00 0 0 0 0 812.0000
   6433    501.00    107.69    283.00   -283.00  1.1115    100.00 1    565.00      0.00      0.00      0.00      0.00      0.00      0.00      0.00 0 0 0 0 565.0000
   6433    106.00     22.45     59.00    -59.00  1.1115    100.00 1    118.00      0.00      0.00      0.00      0.00      0.00      0.00      0.00 0 0 0 0 118.0000
   6433    713.48    203.95    536.00   -536.00  1.1115    100.00 1   1072.00      0.00      0.00      0.00      0.00      0.00      0.00      0.00 0 0 0 0 1072.0000
   6433     23.00      4.57     12.00    -12.00  1.1115    100.00 1     23.00      0.00      0.00      0.00      0.00      0.00      0.00      0.00 0 0 0 0  23.0000
   6433     10.00      9.51     25.00    -25.00  1.1115    100.00 1     50.00      0.00      0.00      0.00      0.00      0.00      0.00      0.00 0 0 0 0  50.0000
   6533   3408.00    278.88   1924.00  -1924.00  1.0667    100.00 1   3847.00      0.00      0.00      0.00      0.00      0.00      0.00      0.00 0 0 0 0 3847.0000
   6533     33.00      2.75     19.00    -19.00  1.0667    100.00 1     37.00      0.00      0.00      0.00      0.00      0.00      0.00      0.00 0 0 0 0  37.0000
   6533   1006.60    127.55    880.00   -880.00  1.0667    100.00 1   1760.00      0.00      0.00      0.00      0.00      0.00      0.00      0.00 0 0 0 0 1760.0000
   6533     31.20      2.90     20.00    -20.00  1.0667    100.00 1     39.00      0.00      0.00      0.00      0.00      0.00      0.00      0.00 0 0 0 0  39.0000
   6533     60.40      4.49     31.00    -31.00  1.0667    100.00 1     61.00      0.00      0.00      0.00      0.00      0.00      0.00      0.00 0 0 0 0  61.0000
   7031   2514.00    379.19   1419.00  -1419.00  1.0063    100.00 1   2837.00      0.00      0.00      0.00      0.00      0.00      0.00      0.00 0 0 0 0 2837.0000
   7031   2462.60    559.03   2092.00  -2092.00  1.0063    100.00 1   4184.00      0.00      0.00      0.00      0.00      0.00      0.00      0.00 0 0 0 0 4184.0000
   7031      0.00     44.63    167.00   -167.00  1.0063    100.00 1    333.00   -333.00      0.00      0.00      0.00      0.00      0.00      0.00 0 0 0 0 333.0000
   7031      0.00    267.22   1000.00  -1000.00  1.0063    100.00 1      0.10      0.00      0.00      0.00      0.00      0.00      0.00      0.00 0 0 0 0   0.1000
   7031    119.00     79.90    299.00   -299.00  1.0063    100.00 1    597.00      0.00      0.00      0.00      0.00      0.00      0.00      0.00 0 0 0 0 597.0000
   7032   1464.00    126.68    826.00   -826.00  1.0162    100.00 1   1652.00      0.00      0.00      0.00      0.00      0.00      0.00      0.00 0 0 0 0 1652.0000
   7032    885.60     75.00    489.00   -489.00  1.0162    100.00 1    978.00      0.00      0.00      0.00      0.00      0.00      0.00      0.00 0 0 0 0 978.0000
   7032    691.00     53.07    346.00   -346.00  1.0162    100.00 1    691.00      0.00      0.00      0.00      0.00      0.00      0.00      0.00 0 0 0 0 691.0000
   7032      0.00      3.53     23.00    -23.00  1.0162    100.00 1    200.00   -200.00      0.00      0.00      0.00      0.00      0.00      0.00 0 0 0 0 200.0000
   8033   1532.40    -10.12    786.00   -786.00  1.0749    100.00 1   1572.00      0.00      0.00      0.00      0.00      0.00      0.00      0.00 0 0 0 0 1572.0000
   8034   2358.80    536.88   1280.00  -1280.00  1.0033    100.00 1   2560.00      0.00      0.00      0.00      0.00      0.00      0.00      0.00 0 0 0 0 2560.0000
   8034    663.80    144.29    344.00   -344.00  1.0033    100.00 1    688.00      0.00      0.00      0.00      0.00      0.00      0.00      0.00 0 0 0 0 688.0000
];

%% generator cost data
mpc.gencost = [
2 0 0 3 0 1 0
2 0 0 3 0 1 0
2 0 0 3 0 1 0
2 0 0 3 0 1 0
2 0 0 3 0 1 0
2 0 0 3 0 1 0
2 0 0 3 0 1 0
2 0 0 3 0 1 0
2 0 0 3 0 1 0
2 0 0 3 0 1 0
2 0 0 3 0 1 0
2 0 0 3 0 1 0
2 0 0 3 0 1 0
2 0 0 3 0 1 0
2 0 0 3 0 1 0
2 0 0 3 0 1 0
2 0 0 3 0 1 0
2 0 0 3 0 1 0
2 0 0 3 0 1 0
2 0 0 3 0 1 0
2 0 0 3 0 1 0
2 0 0 3 0 1 0
2 0 0 3 0 1 0
2 0 0 3 0 1 0
2 0 0 3 0 1 0
2 0 0 3 0 1 0
2 0 0 3 0 1 0
2 0 0 3 0 1 0
2 0 0 3 0 1 0
2 0 0 3 0 1 0
2 0 0 3 0 1 0
2 0 0 3 0 1 0
2 0 0 3 0 1 0
2 0 0 3 0 1 0
2 0 0 3 0 1 0
2 0 0 3 0 1 0
2 0 0 3 0 1 0
2 0 0 3 0 1 0
2 0 0 3 0 1 0
2 0 0 3 0 1 0
2 0 0 3 0 1 0
2 0 0 3 0 1 0
2 0 0 3 0 1 0
2 0 0 3 0 1 0
2 0 0 3 0 1 0
2 0 0 3 0 1 0
2 0 0 3 0 1 0
2 0 0 3 0 1 0
2 0 0 3 0 1 0
2 0 0 3 0 1 0
2 0 0 3 0 1 0
2 0 0 3 0 1 0
2 0 0 3 0 1 0
2 0 0 3 0 1 0
2 0 0 3 0 1 0
2 0 0 3 0 1 0
2 0 0 3 0 1 0
2 0 0 3 0 1 0
2 0 0 3 0 1 0
2 0 0 3 0 1 0
2 0 0 3 0 1 0
2 0 0 3 0 1 0
2 0 0 3 0 1 0
2 0 0 3 0 1 0
2 0 0 3 0 1 0
2 0 0 3 0 1 0
2 0 0 3 0 1 0
2 0 0 3 0 1 0
2 0 0 3 0 1 0
2 0 0 3 0 1 0
2 0 0 3 0 1 0
2 0 0 3 0 1 0
2 0 0 3 0 1 0
2 0 0 3 0 1 0
2 0 0 3 0 1 0
2 0 0 3 0 1 0
2 0 0 3 0 1 0
2 0 0 3 0 1 0
2 0 0 3 0 1 0
2 0 0 3 0 1 0
2 0 0 3 0 1 0
2 0 0 3 0 1 0
2 0 0 3 0 1 0
2 0 0 3 0 1 0
2 0 0 3 0 1 0
2 0 0 3 0 1 0
2 0 0 3 0 1 0
2 0 0 3 0 1 0
2 0 0 3 0 1 0
2 0 0 3 0 1 0
2 0 0 3 0 1 0
2 0 0 3 0 1 0
2 0 0 3 0 1 0
2 0 0 3 0 1 0
2 0 0 3 0 1 0
2 0 0 3 0 1 0
2 0 0 3 0 1 0
2 0 0 3 0 1 0
2 0 0 3 0 1 0
2 0 0 3 0 1 0
2 0 0 3 0 1 0
2 0 0 3 0 1 0
2 0 0 3 0 1 0
2 0 0 3 0 1 0
2 0 0 3 0 1 0
2 0 0 3 0 1 0
2 0 0 3 0 1 0
2 0 0 3 0 1 0
2 0 0 3 0 1 0
2 0 0 3 0 1 0
2 0 0 3 0 1 0
2 0 0 3 0 1 0
2 0 0 3 0 1 0
2 0 0 3 0 1 0
2 0 0 3 0 1 0
2 0 0 3 0 1 0
2 0 0 3 0 1 0
2 0 0 3 0 1 0
2 0 0 3 0 1 0
2 0 0 3 0 1 0
2 0 0 3 0 1 0
2 0 0 3 0 1 0
2 0 0 3 0 1 0
2 0 0 3 0 1 0
2 0 0 3 0 1 0
2 0 0 3 0 1 0
2 0 0 3 0 1 0
2 0 0 3 0 1 0
2 0 0 3 0 1 0
2 0 0 3 0 1 0
2 0 0 3 0 1 0
2 0 0 3 0 1 0
2 0 0 3 0 1 0
2 0 0 3 0 1 0
2 0 0 3 0 1 0
2 0 0 3 0 1 0
2 0 0 3 0 1 0
2 0 0 3 0 1 0
2 0 0 3 0 1 0
2 0 0 3 0 1 0
2 0 0 3 0 1 0
2 0 0 3 0 1 0
2 0 0 3 0 1 0
];

%% branch data
mpc.branch = [
   1001    1002  0.000000  0.011000   0.00000   3812.00      0.00      0.00 1.00000    0.000 1    0.00    0.00   -621.07    168.64    621.07   -125.68
   1001    1002  0.000000  0.011000   0.00000   3812.00      0.00      0.00 1.00000    0.000 1    0.00    0.00   -621.07    168.64    621.07   -125.68
   1001    1201  0.001770  0.031690   3.34460   1321.00      0.00      0.00 0.00000    0.000 1    0.00    0.00    982.86   -268.01   -966.61    185.13
   1001    1202  0.010800  0.096500   0.32960    432.00      0.00      0.00 0.00000    0.000 1    0.00    0.00    259.29    -69.13   -252.18     96.03
   1002    1003  0.000280  0.013800   0.00000   3038.00      0.00    430.00 1.00000    0.000 1    0.00    0.00   1084.05    359.48  -1080.50   -184.41
   1002    1003  0.000290  0.013900   0.00000   3016.00      0.00    430.00 1.00000    0.000 1    0.00    0.00   1076.44    356.27  -1072.82   -182.46
   1002    1004  0.000500  0.005300   0.08820   7876.00      0.00      0.00 0.00000    0.000 1    0.00    0.00  -4480.03    -89.84   4577.66   1115.24
   1002    1032  0.000000  0.000500   0.00000  83858.00      0.00      0.00 1.00000    0.000 1    0.00    0.00  -2088.13   -514.25   2088.14    536.74
   1002    1102  0.001790  0.019880   2.57600   2101.00      0.00      0.00 0.00000    0.000 1    0.00    0.00   1526.94    148.98  -1484.98     61.69
   1002    1102  0.001790  0.019880   2.57600   2101.00      0.00      0.00 0.00000    0.000 1    0.00    0.00   1526.94    148.98  -1484.98     61.69
   1002    6506  0.004800  0.043600   0.70780    956.00      0.00      0.00 0.00000    0.000 1    0.00    0.00   -115.58   -121.16    116.54     53.95
   1004    1034  0.000000  0.000500   0.00000  83858.00      0.00      0.00 1.00000    0.000 1    0.00    0.00  -6836.50  -1297.87   6836.54   1510.73
   1004    7001  0.039030  0.274030   2.00000    151.00      0.00      0.00 0.00000    0.000 1    0.00    0.00    255.67    -37.63   -231.25     -4.67
   1004    7002  0.009770  0.110000   2.00000    380.00      0.00      0.00 0.00000    0.000 1    0.00    0.00    590.58     68.74   -557.76     84.03
   1101    1102  0.000000  0.014600   0.00000   2872.00      0.00      0.00 1.00000    0.000 1    0.00    0.00  -1396.74    372.29   1396.75    -73.23
   1101    1102  0.000000  0.014600   0.00000   2872.00      0.00      0.00 1.00000    0.000 1    0.00    0.00  -1396.74    372.29   1396.75    -73.23
   1101    1131  0.000000  0.000500   0.00000  83858.00      0.00      0.00 1.00000    0.000 1    0.00    0.00  -1880.34   -245.50   1880.35    263.12
   1101    1401  0.002800  0.021100   1.01940   1970.00      0.00   1630.00 0.00000    0.000 1    0.00    0.00     73.15   -180.55    -72.55     78.48
   1101    1401  0.002800  0.021100   1.01940   1970.00      0.00   1630.00 0.00000    0.000 1    0.00    0.00     73.15   -180.55    -72.55     78.48
   1201    1202  0.000770  0.005360   1.39842   7743.00      0.00      0.00 0.00000    0.000 1    0.00    0.00  -1098.39    192.83   1106.78   -298.15
   1201    1402  0.001790  0.025920   3.39220   1614.00      0.00      0.00 0.00000    0.000 1    0.00    0.00   1180.76     -6.74  -1158.97    -66.40
   1201    2901  0.002070  0.013690   3.95160   3028.00      0.00      0.00 0.00000    0.000 1    0.00    0.00    717.26   -369.26   -707.87    -36.53
   1202    1232  0.000000  0.000500   0.00000  83858.00      0.00   2000.00 1.00000    0.000 1    0.00    0.00  -3384.70   -125.98   3384.71    175.16
   1202    1302  0.002800  0.021100   1.01940   1970.00      0.00   1630.00 0.00000    0.000 1    0.00    0.00    615.72    158.70   -605.47   -194.81
   1202    1402  0.002410  0.034890   4.86560   1199.00      0.00      0.00 0.00000    0.000 1    0.00    0.00   1038.45   -116.72  -1015.59   -107.58
   1301    1302  0.002800  0.021100   1.01940   1970.00      0.00   1630.00 0.00000    0.000 1    0.00    0.00    -48.57     36.18     48.85   -143.60
   1301    1331  0.000000  0.000500   0.00000  83858.00      0.00      0.00 1.00000    0.000 1    0.00    0.00  -4119.80    -69.01   4119.81    146.75
   1301    1402  0.002800  0.021100   1.01940   1970.00      0.00   1630.00 0.00000    0.000 1    0.00    0.00   1005.76   -145.21   -979.61    229.68
   1301    1402  0.006200  0.067300   1.11560    620.00      0.00      0.00 0.00000    0.000 1    0.00    0.00    317.62    -76.41   -311.88     15.58
   1301    2603  0.001790  0.025240   0.53546   1657.00      0.00      0.00 0.00000    0.000 1    0.00    0.00    129.87    -26.98   -129.59    -27.47
   1301    2901  0.010800  0.096500   0.32960    432.00      0.00      0.00 0.00000    0.000 1    0.00    0.00     10.55    -69.86    -10.28     34.69
   1302    1303  0.000000  0.007200   0.00000   5823.00      0.00   1500.00 1.00000    0.000 1    0.00    0.00    539.09    336.03   -539.09   -308.53
   1303    1333  0.000000  0.000500   0.00000  83858.00      0.00      0.00 1.00000    0.000 1    0.00    0.00  -5145.55   -542.67   5145.58    675.19
   1303    6507  0.008110  0.136900   1.11560    306.00      0.00      0.00 0.00000    0.000 1    0.00    0.00   -272.75    -17.89    278.84      3.57
   1401    1402  0.000400  0.009600   0.90380   4364.00      0.00      0.00 0.00000    0.000 1    0.00    0.00    953.88   -277.08   -950.29    264.48
   1401    1402  0.000400  0.009600   0.90380   4364.00      0.00      0.00 0.00000    0.000 1    0.00    0.00    953.88   -277.08   -950.29    264.48
   1401    1403  0.000280  0.013800   0.00000   3038.00      0.00    430.00 1.00000    0.000 1    0.00    0.00    -10.83     -4.80     10.83      4.82
   1401    1431  0.000000  0.000500   0.00000  83858.00      0.00   3066.00 1.00000    0.000 1    0.00    0.00  -8867.54   -920.96   8867.61   1291.95
   1401    2301  0.002590  0.029670   2.15300   1408.00      0.00   1800.00 0.00000    0.000 1    0.00    0.00    148.43   -123.38   -147.89   -101.02
   1401    2400  0.002590  0.029670   2.15300   1408.00      0.00   1800.00 0.00000    0.000 1    0.00    0.00    431.36    -76.57   -426.83    -98.90
   1403    2100  0.008450  0.070340   0.15954    592.00      0.00   1160.00 0.00000    0.000 1    0.00    0.00    -10.84     -4.83     10.85    -12.17
   2000    2030  0.000000  0.000500   0.00000  83858.00      0.00      0.00 1.00000    0.000 1    0.00    0.00  -2458.14   -270.43   2458.14    301.01
   2000    2202  0.001380  0.053990   0.15252    776.00    986.00    888.00 0.00000    0.000 1    0.00    0.00    378.42     48.44   -376.40     15.54
   2000    2302  0.001380  0.053990   0.15252    776.00    986.00    888.00 0.00000    0.000 1    0.00    0.00   -127.57    -65.04    127.84     59.81
   2100    2130  0.000000  0.000500   0.00000  83858.00      0.00      0.00 1.00000    0.000 1    0.00    0.00  -1328.38   -173.46   1328.38    181.85
   2100    2302  0.008450  0.070340   0.15954    592.00      0.00   1160.00 0.00000    0.000 1    0.00    0.00     47.19    -14.84    -47.01     -0.74
   2100    2400  0.000280  0.013800   0.00000   3038.00      0.00    430.00 1.00000    0.000 1    0.00    0.00    989.00    145.31   -986.39    -16.34
   2201    2202  0.000000  0.005000   0.00000   8386.00      0.00      0.00 1.00000    0.000 1    0.00    0.00    464.63     56.13   -464.63    -44.92
   2201    2202  0.000000  0.005000   0.00000   8386.00      0.00      0.00 1.00000    0.000 1    0.00    0.00    464.63     56.13   -464.63    -44.92
   2201    2301  0.001790  0.025240   2.15300   1657.00      0.00   1800.00 0.00000    0.000 1    0.00    0.00   -929.24   -112.12    945.06    114.92
   2202    2203  0.003120  0.028860   0.15252   1444.00    986.00    888.00 0.00000    0.000 1    0.00    0.00     27.82    -75.99    -27.64     62.50
   2202    2203  0.003120  0.028860   0.15252   1444.00    986.00    888.00 0.00000    0.000 1    0.00    0.00     27.82    -75.99    -27.64     62.50
   2202    2503  0.003120  0.028860   0.15252   1444.00    986.00    888.00 0.00000    0.000 1    0.00    0.00   -295.94    -42.42    298.79     53.63
   2203    2233  0.000000  0.000500   0.00000  83858.00      0.00      0.00 1.00000    0.000 1    0.00    0.00   -994.15   -463.69    994.15    469.65
   2203    2503  0.003120  0.028860   0.15252   1444.00    986.00    888.00 0.00000    0.000 1    0.00    0.00   -329.71     29.90    333.12    -13.90
   2203    2503  0.003120  0.028860   0.15252   1444.00    986.00    888.00 0.00000    0.000 1    0.00    0.00   -329.71     29.90    333.12    -13.90
   2301    2302  0.000000  0.005000   0.00000   8386.00      0.00      0.00 1.00000    0.000 1    0.00    0.00   -398.57     -7.04    398.57     14.47
   2301    2302  0.000000  0.005000   0.00000   8386.00      0.00      0.00 1.00000    0.000 1    0.00    0.00   -398.57     -7.04    398.57     14.47
   2302    2332  0.000000  0.000500   0.00000  83858.00      0.00      0.00 1.00000    0.000 1    0.00    0.00   -877.98    -87.03    877.99     90.67
   2400    2403  0.000420  0.009050   0.66794   4628.00      0.00   3600.00 0.00000    0.000 1    0.00    0.00    569.93     38.53   -568.60    -78.88
   2401    2402  0.000280  0.007530   0.51736   5564.00      0.00   3600.00 0.00000    0.000 1    0.00    0.00   1310.30    215.82  -1305.62   -143.75
   2401    2402  0.000350  0.007500   0.55360   5584.00      0.00   3600.00 0.00000    0.000 1    0.00    0.00   1317.28    202.31  -1311.37   -133.62
   2401    2404  0.000440  0.011250   0.82920   3724.00      0.00   3600.00 0.00000    0.000 1    0.00    0.00   -988.83    181.68    993.09   -159.32
   2401    2404  0.000440  0.011250   0.82920   3724.00      0.00   3600.00 0.00000    0.000 1    0.00    0.00   -988.83    181.68    993.09   -159.32
   2401    2501  0.000600  0.012800   0.94620   3272.00      0.00   3600.00 0.00000    0.000 1    0.00    0.00   1074.09    139.84  -1067.36    -94.63
   2401    2603  0.000200  0.004100   0.29620  10214.00      0.00      0.00 0.00000    0.000 1    0.00    0.00  -1981.55   -163.84   1989.00    284.62
   2401    2901  0.001930  0.027790   4.67120   1505.00      0.00   3600.00 0.00000    0.000 1    0.00    0.00   -383.33   -433.67    386.63    -45.04
   2401    2902  0.001900  0.031000   4.14020   1350.00      0.00   3600.00 0.00000    0.000 1    0.00    0.00   -241.55   -429.29    243.38    -10.77
   2402    2409  0.000000  0.005000   0.00000   8386.00      0.00      0.00 1.00000    0.000 1    0.00    0.00    694.01    140.26   -694.01   -115.84
   2402    2501  0.000210  0.004570   0.32336   9165.00      0.00   3600.00 0.00000    0.000 1    0.00    0.00    843.00     55.32   -841.54    -56.50
   2403    2501  0.000400  0.009300   0.68560   4504.00      0.00   3600.00 0.00000    0.000 1    0.00    0.00   -481.41     40.45    482.33    -88.98
   2404    2411  0.000000  0.011490   0.00000   3649.00      0.00   1120.00 1.00000    0.000 1    0.00    0.00    366.02     65.40   -366.02    -49.99
   2404    2411  0.000000  0.011490   0.00000   3649.00      0.00   1120.00 1.00000    0.000 1    0.00    0.00    366.02     65.40   -366.02    -49.99
   2404    2411  0.000000  0.011490   0.00000   3649.00      0.00   1120.00 1.00000    0.000 1    0.00    0.00    366.02     65.40   -366.02    -49.99
   2404    3893  0.000000 -0.009350   0.00000   4484.00      0.00   2134.00 0.00000    0.000 1    0.00    0.00  -1003.14     32.02   1003.14   -123.37
   2404    3895  0.000000 -0.009350   0.00000   4484.00      0.00   2134.00 0.00000    0.000 1    0.00    0.00  -1009.83     35.01   1009.83   -127.60
   2404    3897  0.000000 -0.008400   0.00000   4992.00      0.00   2100.00 0.00000    0.000 1    0.00    0.00  -1071.29     55.44   1071.29   -149.19
   2405    2406  0.001400  0.026400   0.10200   1586.00      0.00   3070.00 0.00000    0.000 1    0.00    0.00     67.06     27.60    -66.99    -36.49
   2405    2410  0.000650  0.011870   0.04672   3527.00      0.00   3070.00 0.00000    0.000 1    0.00    0.00    546.19     57.39   -544.27    -27.08
   2405    2410  0.000650  0.011870   0.04672   3527.00      0.00   3070.00 0.00000    0.000 1    0.00    0.00    546.19     57.39   -544.27    -27.08
   2405    2619  0.000000  0.001150   0.00000  36460.00      0.00      0.00 1.00000    0.000 1    0.00    0.00  -1984.20   -165.04   1984.21    209.62
   2406    2408  0.001900  0.025800   0.09840   1621.00      0.00   2320.00 0.00000    0.000 1    0.00    0.00   -736.00     92.78    746.44     38.96
   2406    2410  0.008450  0.070340   0.15954    592.00      0.00   1160.00 0.00000    0.000 1    0.00    0.00     65.59    -15.55    -65.22      2.58
   2407    2408  0.001100  0.012700   0.04800   3289.00      0.00   2320.00 0.00000    0.000 1    0.00    0.00  -1732.77     36.55   1768.00    365.59
   2408    2409  0.001380  0.053990   0.15252    776.00      0.00   2320.00 0.00000    0.000 1    0.00    0.00    662.35     98.87   -656.25    124.32
   2408    2409  0.001380  0.053990   0.15252    776.00      0.00   2320.00 0.00000    0.000 1    0.00    0.00    662.35     98.87   -656.25    124.32
   2408    2411  0.003200  0.039500   0.14400   1058.00      0.00   2320.00 0.00000    0.000 1    0.00    0.00    419.97     -6.61   -414.43     60.38
...